Version 4
SHEET 1 880 680
WIRE 80 80 -16 80
WIRE 272 80 160 80
WIRE 368 80 272 80
WIRE 528 80 448 80
WIRE -16 112 -16 80
WIRE 272 112 272 80
WIRE 528 112 528 80
WIRE -16 240 -16 192
WIRE 272 240 272 192
WIRE 528 240 528 192
FLAG -16 240 0
FLAG 272 240 0
FLAG 528 240 0
SYMBOL res 176 64 R90
WINDOW 0 0 56 VBottom 2
WINDOW 3 32 56 VTop 2
SYMATTR InstName R1
SYMATTR Value 1k
SYMBOL voltage -16 96 R0
WINDOW 3 30 91 Left 2
WINDOW 123 24 44 Left 2
WINDOW 39 0 0 Left 2
SYMATTR Value SINE(0 10 50 0)
SYMATTR Value2 AC 1
SYMATTR InstName V1
SYMBOL res 288 208 R180
WINDOW 0 36 76 Left 2
WINDOW 3 36 40 Left 2
SYMATTR InstName R2
SYMATTR Value 2k
SYMBOL res 464 64 R90
WINDOW 0 0 56 VBottom 2
WINDOW 3 32 56 VTop 2
SYMATTR InstName R3
SYMATTR Value 1k
SYMBOL res 544 208 R180
WINDOW 0 36 76 Left 2
WINDOW 3 36 40 Left 2
SYMATTR InstName R4
SYMATTR Value 1k
TEXT 0 48 Left 2 !;op
TEXT -16 -8 Left 2 !.tran 0 120m 0 1u
